Circuit: * C:\Users\Keshav\Documents\LTspiceXVII\RippleAdder\RippleAdder_transient.asc

WARNING: Node X1:X1:X1:N003 is floating.
WARNING: Node X1:X1:X1:N005 is floating.
WARNING: Node X1:X1:X1:N001 is floating.
WARNING: Node X1:X1:X1:N002 is floating.
WARNING: Node X1:X1:X2:N003 is floating.
WARNING: Node X1:X1:X2:N005 is floating.
WARNING: Node X1:X1:X2:N001 is floating.
WARNING: Node X1:X1:X2:N002 is floating.
WARNING: Node X1:X1:X3:N003 is floating.
WARNING: Node X1:X1:X3:N005 is floating.
WARNING: Node X1:X1:X3:N001 is floating.
WARNING: Node X1:X1:X3:N002 is floating.
WARNING: Node X1:X1:X4:X1:N003 is floating.
WARNING: Node X1:X1:X4:X1:N005 is floating.
WARNING: Node X1:X1:X4:X1:N001 is floating.
WARNING: Node X1:X1:X4:X1:N002 is floating.
WARNING: Node X1:X1:X4:X2:N003 is floating.
WARNING: Node X1:X1:X4:X2:N005 is floating.
WARNING: Node X1:X1:X4:X2:N001 is floating.
WARNING: Node X1:X1:X4:X2:N002 is floating.
WARNING: Node X1:X1:X4:X3:N003 is floating.
WARNING: Node X1:X1:X4:X3:N005 is floating.
WARNING: Node X1:X1:X4:X3:N001 is floating.
WARNING: Node X1:X1:X4:X3:N002 is floating.
WARNING: Node X1:X1:X4:X4:N003 is floating.
WARNING: Node X1:X1:X4:X4:N005 is floating.
WARNING: Node X1:X1:X4:X4:N001 is floating.
WARNING: Node X1:X1:X4:X4:N002 is floating.
WARNING: Node X1:X1:X5:X1:N003 is floating.
WARNING: Node X1:X1:X5:X1:N005 is floating.
WARNING: Node X1:X1:X5:X1:N001 is floating.
WARNING: Node X1:X1:X5:X1:N002 is floating.
WARNING: Node X1:X1:X5:X2:N003 is floating.
WARNING: Node X1:X1:X5:X2:N005 is floating.
WARNING: Node X1:X1:X5:X2:N001 is floating.
WARNING: Node X1:X1:X5:X2:N002 is floating.
WARNING: Node X1:X1:X5:X3:N003 is floating.
WARNING: Node X1:X1:X5:X3:N005 is floating.
WARNING: Node X1:X1:X5:X3:N001 is floating.
WARNING: Node X1:X1:X5:X3:N002 is floating.
WARNING: Node X1:X1:X5:X4:N003 is floating.
WARNING: Node X1:X1:X5:X4:N005 is floating.
WARNING: Node X1:X1:X5:X4:N001 is floating.
WARNING: Node X1:X1:X5:X4:N002 is floating.
WARNING: Node X1:X2:X1:N003 is floating.
WARNING: Node X1:X2:X1:N005 is floating.
WARNING: Node X1:X2:X1:N001 is floating.
WARNING: Node X1:X2:X1:N002 is floating.
WARNING: Node X1:X2:X2:N003 is floating.
WARNING: Node X1:X2:X2:N005 is floating.
WARNING: Node X1:X2:X2:N001 is floating.
WARNING: Node X1:X2:X2:N002 is floating.
WARNING: Node X1:X2:X3:N003 is floating.
WARNING: Node X1:X2:X3:N005 is floating.
WARNING: Node X1:X2:X3:N001 is floating.
WARNING: Node X1:X2:X3:N002 is floating.
WARNING: Node X1:X2:X4:X1:N003 is floating.
WARNING: Node X1:X2:X4:X1:N005 is floating.
WARNING: Node X1:X2:X4:X1:N001 is floating.
WARNING: Node X1:X2:X4:X1:N002 is floating.
WARNING: Node X1:X2:X4:X2:N003 is floating.
WARNING: Node X1:X2:X4:X2:N005 is floating.
WARNING: Node X1:X2:X4:X2:N001 is floating.
WARNING: Node X1:X2:X4:X2:N002 is floating.
WARNING: Node X1:X2:X4:X3:N003 is floating.
WARNING: Node X1:X2:X4:X3:N005 is floating.
WARNING: Node X1:X2:X4:X3:N001 is floating.
WARNING: Node X1:X2:X4:X3:N002 is floating.
WARNING: Node X1:X2:X4:X4:N003 is floating.
WARNING: Node X1:X2:X4:X4:N005 is floating.
WARNING: Node X1:X2:X4:X4:N001 is floating.
WARNING: Node X1:X2:X4:X4:N002 is floating.
WARNING: Node X1:X2:X5:X1:N003 is floating.
WARNING: Node X1:X2:X5:X1:N005 is floating.
WARNING: Node X1:X2:X5:X1:N001 is floating.
WARNING: Node X1:X2:X5:X1:N002 is floating.
WARNING: Node X1:X2:X5:X2:N003 is floating.
WARNING: Node X1:X2:X5:X2:N005 is floating.
WARNING: Node X1:X2:X5:X2:N001 is floating.
WARNING: Node X1:X2:X5:X2:N002 is floating.
WARNING: Node X1:X2:X5:X3:N003 is floating.
WARNING: Node X1:X2:X5:X3:N005 is floating.
WARNING: Node X1:X2:X5:X3:N001 is floating.
WARNING: Node X1:X2:X5:X3:N002 is floating.
WARNING: Node X1:X2:X5:X4:N003 is floating.
WARNING: Node X1:X2:X5:X4:N005 is floating.
WARNING: Node X1:X2:X5:X4:N001 is floating.
WARNING: Node X1:X2:X5:X4:N002 is floating.
WARNING: Node X1:X3:X1:N003 is floating.
WARNING: Node X1:X3:X1:N005 is floating.
WARNING: Node X1:X3:X1:N001 is floating.
WARNING: Node X1:X3:X1:N002 is floating.
WARNING: Node X1:X3:X2:N003 is floating.
WARNING: Node X1:X3:X2:N005 is floating.
WARNING: Node X1:X3:X2:N001 is floating.
WARNING: Node X1:X3:X2:N002 is floating.
WARNING: Node X1:X3:X3:N003 is floating.
WARNING: Node X1:X3:X3:N005 is floating.
WARNING: Node X1:X3:X3:N001 is floating.
WARNING: Node X1:X3:X3:N002 is floating.
WARNING: Node X1:X3:X4:X1:N003 is floating.
WARNING: Node X1:X3:X4:X1:N005 is floating.
WARNING: Node X1:X3:X4:X1:N001 is floating.
WARNING: Node X1:X3:X4:X1:N002 is floating.
WARNING: Node X1:X3:X4:X2:N003 is floating.
WARNING: Node X1:X3:X4:X2:N005 is floating.
WARNING: Node X1:X3:X4:X2:N001 is floating.
WARNING: Node X1:X3:X4:X2:N002 is floating.
WARNING: Node X1:X3:X4:X3:N003 is floating.
WARNING: Node X1:X3:X4:X3:N005 is floating.
WARNING: Node X1:X3:X4:X3:N001 is floating.
WARNING: Node X1:X3:X4:X3:N002 is floating.
WARNING: Node X1:X3:X4:X4:N003 is floating.
WARNING: Node X1:X3:X4:X4:N005 is floating.
WARNING: Node X1:X3:X4:X4:N001 is floating.
WARNING: Node X1:X3:X4:X4:N002 is floating.
WARNING: Node X1:X3:X5:X1:N003 is floating.
WARNING: Node X1:X3:X5:X1:N005 is floating.
WARNING: Node X1:X3:X5:X1:N001 is floating.
WARNING: Node X1:X3:X5:X1:N002 is floating.
WARNING: Node X1:X3:X5:X2:N003 is floating.
WARNING: Node X1:X3:X5:X2:N005 is floating.
WARNING: Node X1:X3:X5:X2:N001 is floating.
WARNING: Node X1:X3:X5:X2:N002 is floating.
WARNING: Node X1:X3:X5:X3:N003 is floating.
WARNING: Node X1:X3:X5:X3:N005 is floating.
WARNING: Node X1:X3:X5:X3:N001 is floating.
WARNING: Node X1:X3:X5:X3:N002 is floating.
WARNING: Node X1:X3:X5:X4:N003 is floating.
WARNING: Node X1:X3:X5:X4:N005 is floating.
WARNING: Node X1:X3:X5:X4:N001 is floating.
WARNING: Node X1:X3:X5:X4:N002 is floating.
WARNING: Node X1:X4:X1:N003 is floating.
WARNING: Node X1:X4:X1:N005 is floating.
WARNING: Node X1:X4:X1:N001 is floating.
WARNING: Node X1:X4:X1:N002 is floating.
WARNING: Node X1:X4:X2:N003 is floating.
WARNING: Node X1:X4:X2:N005 is floating.
WARNING: Node X1:X4:X2:N001 is floating.
WARNING: Node X1:X4:X2:N002 is floating.
WARNING: Node X1:X4:X3:N003 is floating.
WARNING: Node X1:X4:X3:N005 is floating.
WARNING: Node X1:X4:X3:N001 is floating.
WARNING: Node X1:X4:X3:N002 is floating.
WARNING: Node X1:X4:X4:X1:N003 is floating.
WARNING: Node X1:X4:X4:X1:N005 is floating.
WARNING: Node X1:X4:X4:X1:N001 is floating.
WARNING: Node X1:X4:X4:X1:N002 is floating.
WARNING: Node X1:X4:X4:X2:N003 is floating.
WARNING: Node X1:X4:X4:X2:N005 is floating.
WARNING: Node X1:X4:X4:X2:N001 is floating.
WARNING: Node X1:X4:X4:X2:N002 is floating.
WARNING: Node X1:X4:X4:X3:N003 is floating.
WARNING: Node X1:X4:X4:X3:N005 is floating.
WARNING: Node X1:X4:X4:X3:N001 is floating.
WARNING: Node X1:X4:X4:X3:N002 is floating.
WARNING: Node X1:X4:X4:X4:N003 is floating.
WARNING: Node X1:X4:X4:X4:N005 is floating.
WARNING: Node X1:X4:X4:X4:N001 is floating.
WARNING: Node X1:X4:X4:X4:N002 is floating.
WARNING: Node X1:X4:X5:X1:N003 is floating.
WARNING: Node X1:X4:X5:X1:N005 is floating.
WARNING: Node X1:X4:X5:X1:N001 is floating.
WARNING: Node X1:X4:X5:X1:N002 is floating.
WARNING: Node X1:X4:X5:X2:N003 is floating.
WARNING: Node X1:X4:X5:X2:N005 is floating.
WARNING: Node X1:X4:X5:X2:N001 is floating.
WARNING: Node X1:X4:X5:X2:N002 is floating.
WARNING: Node X1:X4:X5:X3:N003 is floating.
WARNING: Node X1:X4:X5:X3:N005 is floating.
WARNING: Node X1:X4:X5:X3:N001 is floating.
WARNING: Node X1:X4:X5:X3:N002 is floating.
WARNING: Node X1:X4:X5:X4:N003 is floating.
WARNING: Node X1:X4:X5:X4:N005 is floating.
WARNING: Node X1:X4:X5:X4:N001 is floating.
WARNING: Node X1:X4:X5:X4:N002 is floating.

Direct Newton iteration failed to find .op point.  (Use ".option noopiter" to skip.)
Starting Gmin stepping
Gmin = 10
Gmin = 1.07374
Gmin = 0.115292
Gmin = 0.0123794
Gmin = 0.00132923
Gmin = 0.000142725
Gmin = 1.5325e-005
Gmin = 1.6455e-006
Gmin = 1.76685e-007
Gmin = 1.89714e-008
Gmin = 2.03704e-009
Gmin = 2.18725e-010
Gmin = 2.34854e-011
Gmin = 2.52173e-012
Gmin = 2.70769e-013
Gmin = 0
Gmin stepping succeeded in finding the operating point.

Heightened Def Con from 0.016 +++++++++++++++++++++++to 0.016
Heightened Def Con from 0.016 +++++++++++++++++++++++to 0.016
Heightened Def Con from 0.016 ++++++++++++++++++++++to 0.016
Heightened Def Con from 0.016 +++++++++++++++++++++to 0.016
Heightened Def Con from 0.016 +++++++++++++++++++to 0.016
Heightened Def Con from 0.016 +++++++++++++++to 0.016
Heightened Def Con from 0.016 +++++++to 0.016
Heightened Def Con from 0.016 +to 0.016
Heightened Def Con from 0.032 +++++++++++++++++++++++to 0.032
Heightened Def Con from 0.032 +++++++++++++++++++++++to 0.032
Heightened Def Con from 0.032 ++++++++++++++++++++++to 0.032
Heightened Def Con from 0.032 +++++++++++++++++++++to 0.032
Heightened Def Con from 0.032 +++++++++++++++++++to 0.032
Heightened Def Con from 0.032 +++++++++++++++to 0.032
Heightened Def Con from 0.032 +++++++to 0.032
Heightened Def Con from 0.032 +to 0.032
Heightened Def Con from 0.048 +++++++++++++++++++++++to 0.048
Heightened Def Con from 0.048 +++++++++++++++++++++++to 0.048
Heightened Def Con from 0.048 ++++++++++++++++++++++to 0.048
Heightened Def Con from 0.048 +++++++++++++++++++++to 0.048
Heightened Def Con from 0.048 +++++++++++++++++++to 0.048
Heightened Def Con from 0.048 +++++++++++++++to 0.048
Heightened Def Con from 0.048 +++++++to 0.048
Heightened Def Con from 0.048 +to 0.048
Heightened Def Con from 0.064 +++++++++++++++++++++++to 0.064
Heightened Def Con from 0.064 +++++++++++++++++++++++to 0.064
Heightened Def Con from 0.064 ++++++++++++++++++++++to 0.064
Heightened Def Con from 0.064 +++++++++++++++++++++to 0.064
Heightened Def Con from 0.064 +++++++++++++++++++to 0.064
Heightened Def Con from 0.064 +++++++++++++++to 0.064
Heightened Def Con from 0.064 +++++++to 0.064
Heightened Def Con from 0.064 +to 0.064
Heightened Def Con from 0.08 +++++++++++++++++++++++to 0.08
Heightened Def Con from 0.08 +++++++++++++++++++++++to 0.08
Heightened Def Con from 0.08 ++++++++++++++++++++++to 0.08
Heightened Def Con from 0.08 +++++++++++++++++++++to 0.08
Heightened Def Con from 0.08 +++++++++++++++++++to 0.08
Heightened Def Con from 0.08 +++++++++++++++to 0.08
Heightened Def Con from 0.08 +++++++to 0.08
Heightened Def Con from 0.08 +to 0.08
Heightened Def Con from 0.096 +++++++++++++++++++++++to 0.096
Heightened Def Con from 0.096 +++++++++++++++++++++++to 0.096
Heightened Def Con from 0.096 ++++++++++++++++++++++to 0.096
Heightened Def Con from 0.096 +++++++++++++++++++++to 0.096
Heightened Def Con from 0.096 +++++++++++++++++++to 0.096
Heightened Def Con from 0.096 +++++++++++++++to 0.096
Heightened Def Con from 0.096 +++++++to 0.096
Heightened Def Con from 0.096 +to 0.096
Heightened Def Con from 0.112 +++++++++++++++++++++++to 0.112
Heightened Def Con from 0.112 +++++++++++++++++++++++to 0.112
Heightened Def Con from 0.112 ++++++++++++++++++++++to 0.112
Heightened Def Con from 0.112 +++++++++++++++++++++to 0.112
Heightened Def Con from 0.112 +++++++++++++++++++to 0.112
Heightened Def Con from 0.112 +++++++++++++++to 0.112
Heightened Def Con from 0.112 +++++++to 0.112
Heightened Def Con from 0.112 +to 0.112
Heightened Def Con from 0.128 +++++++++++++++++++++++to 0.128
Heightened Def Con from 0.128 +++++++++++++++++++++++to 0.128
Heightened Def Con from 0.128 ++++++++++++++++++++++to 0.128
Heightened Def Con from 0.128 +++++++++++++++++++to 0.128
Heightened Def Con from 0.128 +++++++++to 0.128
Heightened Def Con from 0.128 +to 0.128
Heightened Def Con from 0.128 +++++++++++++++++++++++to 0.128
Heightened Def Con from 0.128 +++++++++++++++++++++to 0.128
Heightened Def Con from 0.128 ++++++++++++++++++++to 0.128
Heightened Def Con from 0.128 +++++++++++++++++to 0.128
Heightened Def Con from 0.128 +++++++++++++++to 0.128
Heightened Def Con from 0.128 ++++++++++++to 0.128
Heightened Def Con from 0.128 +++++++++to 0.128
Heightened Def Con from 0.128 +++++++++to 0.128
Heightened Def Con from 0.128 +++++++to 0.128
Heightened Def Con from 0.128 +++++to 0.128
Heightened Def Con from 0.128 +++++to 0.128
Heightened Def Con from 0.128 +++to 0.128
Heightened Def Con from 0.128 +++to 0.128
Heightened Def Con from 0.128 +to 0.128
Heightened Def Con from 0.128 +to 0.128
Heightened Def Con from 0.128 +to 0.128
Heightened Def Con from 0.128 to 0.128
Heightened Def Con from 0.144 +++++++++++++++++++++++to 0.144
Heightened Def Con from 0.144 +++++++++++++++++++++++to 0.144
Heightened Def Con from 0.144 ++++++++++++++++++++++to 0.144
Heightened Def Con from 0.144 +++++++++++++++++++++to 0.144
Heightened Def Con from 0.144 +++++++++++++++++++to 0.144
Heightened Def Con from 0.144 +++++++++++++++to 0.144
Heightened Def Con from 0.144 +++++++to 0.144
Heightened Def Con from 0.144 +to 0.144
Heightened Def Con from 0.16 +++++++++++++++++++++++to 0.16
Heightened Def Con from 0.16 +++++++++++++++++++++++to 0.16
Heightened Def Con from 0.16 ++++++++++++++++++++++to 0.16
Heightened Def Con from 0.16 +++++++++++++++++++++to 0.16
Heightened Def Con from 0.16 +++++++++++++++++++to 0.16
Heightened Def Con from 0.16 +++++++++++++++to 0.16
Heightened Def Con from 0.16 +++++++to 0.16
Heightened Def Con from 0.16 +to 0.16
Heightened Def Con from 0.176 +++++++++++++++++++++++to 0.176
Heightened Def Con from 0.176 +++++++++++++++++++++++to 0.176
Heightened Def Con from 0.176 ++++++++++++++++++++++to 0.176
Heightened Def Con from 0.176 +++++++++++++++++++++to 0.176
Heightened Def Con from 0.176 +++++++++++++++++++to 0.176
Heightened Def Con from 0.176 +++++++++++++++to 0.176
Heightened Def Con from 0.176 +++++++to 0.176
Heightened Def Con from 0.176 +to 0.176
Heightened Def Con from 0.192 +++++++++++++++++++++++to 0.192
Heightened Def Con from 0.192 +++++++++++++++++++++++to 0.192
Heightened Def Con from 0.192 ++++++++++++++++++++++to 0.192
Heightened Def Con from 0.192 +++++++++++++++++++to 0.192
Heightened Def Con from 0.192 +++++++++to 0.192
Heightened Def Con from 0.192 +to 0.192
Heightened Def Con from 0.192 +++++++++++++++++++++++to 0.192
Heightened Def Con from 0.192 +++++++++++++++++++++to 0.192
Heightened Def Con from 0.192 ++++++++++++++++++++to 0.192
Heightened Def Con from 0.192 +++++++++++++++++to 0.192
Heightened Def Con from 0.192 +++++++++++++++to 0.192
Heightened Def Con from 0.192 ++++++++++++to 0.192
Heightened Def Con from 0.192 +++++++++to 0.192
Heightened Def Con from 0.192 +++++++++to 0.192
Heightened Def Con from 0.192 +++++++to 0.192
Heightened Def Con from 0.192 +++++to 0.192
Heightened Def Con from 0.192 +++++to 0.192
Heightened Def Con from 0.192 +++to 0.192
Heightened Def Con from 0.192 +++to 0.192
Heightened Def Con from 0.192 +to 0.192
Heightened Def Con from 0.192 +to 0.192
Heightened Def Con from 0.192 +to 0.192
Heightened Def Con from 0.192 to 0.192
Heightened Def Con from 0.208 +++++++++++++++++++++++to 0.208
Heightened Def Con from 0.208 +++++++++++++++++++++++to 0.208
Heightened Def Con from 0.208 ++++++++++++++++++++++to 0.208
Heightened Def Con from 0.208 +++++++++++++++++++++to 0.208
Heightened Def Con from 0.208 +++++++++++++++++++to 0.208
Heightened Def Con from 0.208 +++++++++++++++to 0.208
Heightened Def Con from 0.208 +++++++to 0.208
Heightened Def Con from 0.208 +to 0.208
Heightened Def Con from 0.224 +++++++++++++++++++++++to 0.224
Heightened Def Con from 0.224 +++++++++++++++++++++++to 0.224
Heightened Def Con from 0.224 ++++++++++++++++++++++to 0.224
Heightened Def Con from 0.224 +++++++++++++++++++to 0.224
Heightened Def Con from 0.224 +++++++++to 0.224
Heightened Def Con from 0.224 +to 0.224
Heightened Def Con from 0.224 +++++++++++++++++++++++to 0.224
Heightened Def Con from 0.224 +++++++++++++++++++++to 0.224
Heightened Def Con from 0.224 +++++++++++++++++++to 0.224
Heightened Def Con from 0.224 +++++++++++++++to 0.224
Heightened Def Con from 0.224 ++++++++++++to 0.224
Heightened Def Con from 0.224 +++++++++to 0.224
Heightened Def Con from 0.224 +++++++++to 0.224
Heightened Def Con from 0.224 +++++++++to 0.224
Heightened Def Con from 0.224 +++++++to 0.224
Heightened Def Con from 0.224 +++++to 0.224
Heightened Def Con from 0.224 +++++to 0.224
Heightened Def Con from 0.224 +++to 0.224
Heightened Def Con from 0.224 +++to 0.224
Heightened Def Con from 0.224 +to 0.224
Heightened Def Con from 0.224 +to 0.224
Heightened Def Con from 0.224 +to 0.224
Heightened Def Con from 0.224 to 0.224
Heightened Def Con from 0.24 +++++++++++++++++++++++to 0.24
Heightened Def Con from 0.24 +++++++++++++++++++++++to 0.24
Heightened Def Con from 0.24 ++++++++++++++++++++++to 0.24
Heightened Def Con from 0.24 +++++++++++++++++++to 0.24
Heightened Def Con from 0.24 +++++++++to 0.24
Heightened Def Con from 0.24 +to 0.24
Heightened Def Con from 0.256 +++++++++++++++++++++++to 0.256
Heightened Def Con from 0.256 +++++++++++++++++++++to 0.256
Heightened Def Con from 0.256 ++++++++++++++++++++to 0.256
Heightened Def Con from 0.256 +++++++++++++++++to 0.256
Heightened Def Con from 0.256 +++++++++++++++to 0.256
Heightened Def Con from 0.256 ++++++++++++to 0.256
Heightened Def Con from 0.256 +++++++++to 0.256
Heightened Def Con from 0.256 +++++++++to 0.256
Heightened Def Con from 0.256 +++++++to 0.256
Heightened Def Con from 0.256 +++++to 0.256
Heightened Def Con from 0.256 +++++to 0.256
Heightened Def Con from 0.256 +++to 0.256
Heightened Def Con from 0.256 +++to 0.256
Heightened Def Con from 0.256 +to 0.256
Heightened Def Con from 0.256 +to 0.256
Heightened Def Con from 0.256 +to 0.256
Heightened Def Con from 0.256 to 0.256
Heightened Def Con from 0.272 +++++++++++++++++++++++to 0.272
Heightened Def Con from 0.272 +++++++++++++++++++++++to 0.272
Heightened Def Con from 0.272 ++++++++++++++++++++++to 0.272
Heightened Def Con from 0.272 +++++++++++++++++++++to 0.272
Heightened Def Con from 0.272 +++++++++++++++++++to 0.272
Heightened Def Con from 0.272 +++++++++++++++to 0.272
Heightened Def Con from 0.272 +++++++to 0.272
Heightened Def Con from 0.272 +to 0.272
Heightened Def Con from 0.288 +++++++++++++++++++++++to 0.288
Heightened Def Con from 0.288 +++++++++++++++++++++++to 0.288
Heightened Def Con from 0.288 ++++++++++++++++++++++to 0.288
Heightened Def Con from 0.288 +++++++++++++++++++++to 0.288
Heightened Def Con from 0.288 +++++++++++++++++++to 0.288
Heightened Def Con from 0.288 +++++++++++++++to 0.288
Heightened Def Con from 0.288 +++++++to 0.288
Heightened Def Con from 0.288 +to 0.288
Heightened Def Con from 0.304 +++++++++++++++++++++++to 0.304
Heightened Def Con from 0.304 +++++++++++++++++++++++to 0.304
Heightened Def Con from 0.304 ++++++++++++++++++++++to 0.304
Heightened Def Con from 0.304 +++++++++++++++++++++to 0.304
Heightened Def Con from 0.304 +++++++++++++++++++to 0.304
Heightened Def Con from 0.304 +++++++++++++++to 0.304
Heightened Def Con from 0.304 +++++++to 0.304
Heightened Def Con from 0.304 +to 0.304
Heightened Def Con from 0.32 +++++++++++++++++++++++to 0.32
Heightened Def Con from 0.32 +++++++++++++++++++++++to 0.32
Heightened Def Con from 0.32 ++++++++++++++++++++++to 0.32
Heightened Def Con from 0.32 +++++++++++++++++++++to 0.32
Heightened Def Con from 0.32 +++++++++++++++++++to 0.32
Heightened Def Con from 0.32 +++++++++++++++to 0.32
Heightened Def Con from 0.32 +++++++to 0.32
Heightened Def Con from 0.32 +to 0.32
Heightened Def Con from 0.336 +++++++++++++++++++++++to 0.336
Heightened Def Con from 0.336 +++++++++++++++++++++++to 0.336
Heightened Def Con from 0.336 ++++++++++++++++++++++to 0.336
Heightened Def Con from 0.336 +++++++++++++++++++++to 0.336
Heightened Def Con from 0.336 +++++++++++++++++++to 0.336
Heightened Def Con from 0.336 +++++++++++++++to 0.336
Heightened Def Con from 0.336 +++++++to 0.336
Heightened Def Con from 0.336 +to 0.336
Heightened Def Con from 0.352 +++++++++++++++++++++++to 0.352
Heightened Def Con from 0.352 +++++++++++++++++++++++to 0.352
Heightened Def Con from 0.352 ++++++++++++++++++++++to 0.352
Heightened Def Con from 0.352 +++++++++++++++++++++to 0.352
Heightened Def Con from 0.352 +++++++++++++++++++to 0.352
Heightened Def Con from 0.352 +++++++++++++++to 0.352
Heightened Def Con from 0.352 +++++++to 0.352
Heightened Def Con from 0.352 +to 0.352
Heightened Def Con from 0.368 +++++++++++++++++++++++to 0.368
Heightened Def Con from 0.368 +++++++++++++++++++++++to 0.368
Heightened Def Con from 0.368 ++++++++++++++++++++++to 0.368
Heightened Def Con from 0.368 +++++++++++++++++++++to 0.368
Heightened Def Con from 0.368 +++++++++++++++++++to 0.368
Heightened Def Con from 0.368 +++++++++++++++to 0.368
Heightened Def Con from 0.368 +++++++to 0.368
Heightened Def Con from 0.368 +to 0.368
Heightened Def Con from 0.384 +++++++++++++++++++++++to 0.384
Heightened Def Con from 0.384 +++++++++++++++++++++++to 0.384
Heightened Def Con from 0.384 ++++++++++++++++++++++to 0.384
Heightened Def Con from 0.384 +++++++++++++++++++to 0.384
Heightened Def Con from 0.384 +++++++++to 0.384
Heightened Def Con from 0.384 +to 0.384
Heightened Def Con from 0.384 +++++++++++++++++++++++to 0.384
Heightened Def Con from 0.384 +++++++++++++++++++++to 0.384
Heightened Def Con from 0.384 ++++++++++++++++++++to 0.384
Heightened Def Con from 0.384 +++++++++++++++++to 0.384
Heightened Def Con from 0.384 +++++++++++++++to 0.384
Heightened Def Con from 0.384 ++++++++++++to 0.384
Heightened Def Con from 0.384 +++++++++to 0.384
Heightened Def Con from 0.384 +++++++++to 0.384
Heightened Def Con from 0.384 +++++++to 0.384
Heightened Def Con from 0.384 +++++to 0.384
Heightened Def Con from 0.384 +++++to 0.384
Heightened Def Con from 0.384 +++to 0.384
Heightened Def Con from 0.384 +++to 0.384
Heightened Def Con from 0.384 +to 0.384
Heightened Def Con from 0.384 +to 0.384
Heightened Def Con from 0.384 +to 0.384
Heightened Def Con from 0.384 to 0.384
Heightened Def Con from 0.4 +++++++++++++++++++++++to 0.4
Heightened Def Con from 0.4 +++++++++++++++++++++++to 0.4
Heightened Def Con from 0.4 ++++++++++++++++++++++to 0.4
Heightened Def Con from 0.4 +++++++++++++++++++++to 0.4
Heightened Def Con from 0.4 +++++++++++++++++++to 0.4
Heightened Def Con from 0.4 +++++++++++++++to 0.4
Heightened Def Con from 0.4 +++++++to 0.4
Heightened Def Con from 0.4 +to 0.4
Heightened Def Con from 0.416 +++++++++++++++++++++++to 0.416
Heightened Def Con from 0.416 +++++++++++++++++++++++to 0.416
Heightened Def Con from 0.416 ++++++++++++++++++++++to 0.416
Heightened Def Con from 0.416 +++++++++++++++++++++to 0.416
Heightened Def Con from 0.416 +++++++++++++++++++to 0.416
Heightened Def Con from 0.416 +++++++++++++++to 0.416
Heightened Def Con from 0.416 +++++++to 0.416
Heightened Def Con from 0.416 +to 0.416
Heightened Def Con from 0.432 +++++++++++++++++++++++to 0.432
Heightened Def Con from 0.432 +++++++++++++++++++++++to 0.432
Heightened Def Con from 0.432 ++++++++++++++++++++++to 0.432
Heightened Def Con from 0.432 +++++++++++++++++++++to 0.432
Heightened Def Con from 0.432 +++++++++++++++++++to 0.432
Heightened Def Con from 0.432 +++++++++++++++to 0.432
Heightened Def Con from 0.432 +++++++to 0.432
Heightened Def Con from 0.432 +to 0.432
Heightened Def Con from 0.448 +++++++++++++++++++++++to 0.448
Heightened Def Con from 0.448 +++++++++++++++++++++++to 0.448
Heightened Def Con from 0.448 ++++++++++++++++++++++to 0.448
Heightened Def Con from 0.448 +++++++++++++++++++to 0.448
Heightened Def Con from 0.448 +++++++++to 0.448
Heightened Def Con from 0.448 +to 0.448
Heightened Def Con from 0.448 +++++++++++++++++++++++to 0.448
Heightened Def Con from 0.448 +++++++++++++++++++++to 0.448
Heightened Def Con from 0.448 ++++++++++++++++++++to 0.448
Heightened Def Con from 0.448 +++++++++++++++++to 0.448
Heightened Def Con from 0.448 +++++++++++++++to 0.448
Heightened Def Con from 0.448 ++++++++++++to 0.448
Heightened Def Con from 0.448 +++++++++to 0.448
Heightened Def Con from 0.448 +++++++++to 0.448
Heightened Def Con from 0.448 +++++++to 0.448
Heightened Def Con from 0.448 +++++to 0.448
Heightened Def Con from 0.448 +++++to 0.448
Heightened Def Con from 0.448 +++to 0.448
Heightened Def Con from 0.448 +++to 0.448
Heightened Def Con from 0.448 +to 0.448
Heightened Def Con from 0.448 +to 0.448
Heightened Def Con from 0.448 +to 0.448
Heightened Def Con from 0.448 to 0.448
Heightened Def Con from 0.464 +++++++++++++++++++++++to 0.464
Heightened Def Con from 0.464 +++++++++++++++++++++++to 0.464
Heightened Def Con from 0.464 ++++++++++++++++++++++to 0.464
Heightened Def Con from 0.464 +++++++++++++++++++++to 0.464
Heightened Def Con from 0.464 +++++++++++++++++++to 0.464
Heightened Def Con from 0.464 +++++++++++++++to 0.464
Heightened Def Con from 0.464 +++++++to 0.464
Heightened Def Con from 0.464 +to 0.464
Heightened Def Con from 0.48 +++++++++++++++++++++++to 0.48
Heightened Def Con from 0.48 +++++++++++++++++++++++to 0.48
Heightened Def Con from 0.48 ++++++++++++++++++++++to 0.48
Heightened Def Con from 0.48 +++++++++++++++++++to 0.48
Heightened Def Con from 0.48 +++++++++to 0.48
Heightened Def Con from 0.48 +to 0.48
Heightened Def Con from 0.48 +++++++++++++++++++++++to 0.48
Heightened Def Con from 0.48 +++++++++++++++++++++to 0.48
Heightened Def Con from 0.48 +++++++++++++++++++to 0.48
Heightened Def Con from 0.48 +++++++++++++++to 0.48
Heightened Def Con from 0.48 ++++++++++++to 0.48
Heightened Def Con from 0.48 +++++++++to 0.48
Heightened Def Con from 0.48 +++++++++to 0.48
Heightened Def Con from 0.48 +++++++++to 0.48
Heightened Def Con from 0.48 +++++++to 0.48
Heightened Def Con from 0.48 +++++to 0.48
Heightened Def Con from 0.48 +++++to 0.48
Heightened Def Con from 0.48 +++to 0.48
Heightened Def Con from 0.48 +++to 0.48
Heightened Def Con from 0.48 +to 0.48
Heightened Def Con from 0.48 +to 0.48
Heightened Def Con from 0.48 +to 0.48
Heightened Def Con from 0.48 to 0.48
Heightened Def Con from 0.496 +++++++++++++++++++++++to 0.496
Heightened Def Con from 0.496 +++++++++++++++++++++++to 0.496
Heightened Def Con from 0.496 ++++++++++++++++++++++to 0.496
Heightened Def Con from 0.496 +++++++++++++++++++to 0.496
Heightened Def Con from 0.496 +++++++++to 0.496
Heightened Def Con from 0.496 +to 0.496

Date: Mon Nov 23 21:43:07 2020
Total elapsed time: 48.986 seconds.

tnom = 27
temp = 27
method = modified trap
totiter = 618834
traniter = 618378
tranpoints = 118872
accept = 73440
rejected = 50479
matrix size = 282
fillins = 30
solver = Normal
Thread vector: 89.9/12.0[8] 44.8/11.3[8] 14.3/5.0[8] 1.8/5.9[1]  2592/500
Matrix Compiler1: 39.83 KB object code size  19.4/12.4/[5.7]
Matrix Compiler2: 36.10 KB object code size  14.1/12.8/[3.2]

