Circuit: * C:\Users\Keshav\Documents\LTspiceXVII\RippleAdder\RippleAdder_DC.asc

WARNING: Node X1:X1:X1:N003 is floating.
WARNING: Node X1:X1:X1:N005 is floating.
WARNING: Node X1:X1:X1:N001 is floating.
WARNING: Node X1:X1:X1:N002 is floating.
WARNING: Node X1:X1:X2:N003 is floating.
WARNING: Node X1:X1:X2:N005 is floating.
WARNING: Node X1:X1:X2:N001 is floating.
WARNING: Node X1:X1:X2:N002 is floating.
WARNING: Node X1:X1:X3:N003 is floating.
WARNING: Node X1:X1:X3:N005 is floating.
WARNING: Node X1:X1:X3:N001 is floating.
WARNING: Node X1:X1:X3:N002 is floating.
WARNING: Node X1:X1:X4:X1:N003 is floating.
WARNING: Node X1:X1:X4:X1:N005 is floating.
WARNING: Node X1:X1:X4:X1:N001 is floating.
WARNING: Node X1:X1:X4:X1:N002 is floating.
WARNING: Node X1:X1:X4:X2:N003 is floating.
WARNING: Node X1:X1:X4:X2:N005 is floating.
WARNING: Node X1:X1:X4:X2:N001 is floating.
WARNING: Node X1:X1:X4:X2:N002 is floating.
WARNING: Node X1:X1:X4:X3:N003 is floating.
WARNING: Node X1:X1:X4:X3:N005 is floating.
WARNING: Node X1:X1:X4:X3:N001 is floating.
WARNING: Node X1:X1:X4:X3:N002 is floating.
WARNING: Node X1:X1:X4:X4:N003 is floating.
WARNING: Node X1:X1:X4:X4:N005 is floating.
WARNING: Node X1:X1:X4:X4:N001 is floating.
WARNING: Node X1:X1:X4:X4:N002 is floating.
WARNING: Node X1:X1:X5:X1:N003 is floating.
WARNING: Node X1:X1:X5:X1:N005 is floating.
WARNING: Node X1:X1:X5:X1:N001 is floating.
WARNING: Node X1:X1:X5:X1:N002 is floating.
WARNING: Node X1:X1:X5:X2:N003 is floating.
WARNING: Node X1:X1:X5:X2:N005 is floating.
WARNING: Node X1:X1:X5:X2:N001 is floating.
WARNING: Node X1:X1:X5:X2:N002 is floating.
WARNING: Node X1:X1:X5:X3:N003 is floating.
WARNING: Node X1:X1:X5:X3:N005 is floating.
WARNING: Node X1:X1:X5:X3:N001 is floating.
WARNING: Node X1:X1:X5:X3:N002 is floating.
WARNING: Node X1:X1:X5:X4:N003 is floating.
WARNING: Node X1:X1:X5:X4:N005 is floating.
WARNING: Node X1:X1:X5:X4:N001 is floating.
WARNING: Node X1:X1:X5:X4:N002 is floating.
WARNING: Node X1:X2:X1:N003 is floating.
WARNING: Node X1:X2:X1:N005 is floating.
WARNING: Node X1:X2:X1:N001 is floating.
WARNING: Node X1:X2:X1:N002 is floating.
WARNING: Node X1:X2:X2:N003 is floating.
WARNING: Node X1:X2:X2:N005 is floating.
WARNING: Node X1:X2:X2:N001 is floating.
WARNING: Node X1:X2:X2:N002 is floating.
WARNING: Node X1:X2:X3:N003 is floating.
WARNING: Node X1:X2:X3:N005 is floating.
WARNING: Node X1:X2:X3:N001 is floating.
WARNING: Node X1:X2:X3:N002 is floating.
WARNING: Node X1:X2:X4:X1:N003 is floating.
WARNING: Node X1:X2:X4:X1:N005 is floating.
WARNING: Node X1:X2:X4:X1:N001 is floating.
WARNING: Node X1:X2:X4:X1:N002 is floating.
WARNING: Node X1:X2:X4:X2:N003 is floating.
WARNING: Node X1:X2:X4:X2:N005 is floating.
WARNING: Node X1:X2:X4:X2:N001 is floating.
WARNING: Node X1:X2:X4:X2:N002 is floating.
WARNING: Node X1:X2:X4:X3:N003 is floating.
WARNING: Node X1:X2:X4:X3:N005 is floating.
WARNING: Node X1:X2:X4:X3:N001 is floating.
WARNING: Node X1:X2:X4:X3:N002 is floating.
WARNING: Node X1:X2:X4:X4:N003 is floating.
WARNING: Node X1:X2:X4:X4:N005 is floating.
WARNING: Node X1:X2:X4:X4:N001 is floating.
WARNING: Node X1:X2:X4:X4:N002 is floating.
WARNING: Node X1:X2:X5:X1:N003 is floating.
WARNING: Node X1:X2:X5:X1:N005 is floating.
WARNING: Node X1:X2:X5:X1:N001 is floating.
WARNING: Node X1:X2:X5:X1:N002 is floating.
WARNING: Node X1:X2:X5:X2:N003 is floating.
WARNING: Node X1:X2:X5:X2:N005 is floating.
WARNING: Node X1:X2:X5:X2:N001 is floating.
WARNING: Node X1:X2:X5:X2:N002 is floating.
WARNING: Node X1:X2:X5:X3:N003 is floating.
WARNING: Node X1:X2:X5:X3:N005 is floating.
WARNING: Node X1:X2:X5:X3:N001 is floating.
WARNING: Node X1:X2:X5:X3:N002 is floating.
WARNING: Node X1:X2:X5:X4:N003 is floating.
WARNING: Node X1:X2:X5:X4:N005 is floating.
WARNING: Node X1:X2:X5:X4:N001 is floating.
WARNING: Node X1:X2:X5:X4:N002 is floating.
WARNING: Node X1:X3:X1:N003 is floating.
WARNING: Node X1:X3:X1:N005 is floating.
WARNING: Node X1:X3:X1:N001 is floating.
WARNING: Node X1:X3:X1:N002 is floating.
WARNING: Node X1:X3:X2:N003 is floating.
WARNING: Node X1:X3:X2:N005 is floating.
WARNING: Node X1:X3:X2:N001 is floating.
WARNING: Node X1:X3:X2:N002 is floating.
WARNING: Node X1:X3:X3:N003 is floating.
WARNING: Node X1:X3:X3:N005 is floating.
WARNING: Node X1:X3:X3:N001 is floating.
WARNING: Node X1:X3:X3:N002 is floating.
WARNING: Node X1:X3:X4:X1:N003 is floating.
WARNING: Node X1:X3:X4:X1:N005 is floating.
WARNING: Node X1:X3:X4:X1:N001 is floating.
WARNING: Node X1:X3:X4:X1:N002 is floating.
WARNING: Node X1:X3:X4:X2:N003 is floating.
WARNING: Node X1:X3:X4:X2:N005 is floating.
WARNING: Node X1:X3:X4:X2:N001 is floating.
WARNING: Node X1:X3:X4:X2:N002 is floating.
WARNING: Node X1:X3:X4:X3:N003 is floating.
WARNING: Node X1:X3:X4:X3:N005 is floating.
WARNING: Node X1:X3:X4:X3:N001 is floating.
WARNING: Node X1:X3:X4:X3:N002 is floating.
WARNING: Node X1:X3:X4:X4:N003 is floating.
WARNING: Node X1:X3:X4:X4:N005 is floating.
WARNING: Node X1:X3:X4:X4:N001 is floating.
WARNING: Node X1:X3:X4:X4:N002 is floating.
WARNING: Node X1:X3:X5:X1:N003 is floating.
WARNING: Node X1:X3:X5:X1:N005 is floating.
WARNING: Node X1:X3:X5:X1:N001 is floating.
WARNING: Node X1:X3:X5:X1:N002 is floating.
WARNING: Node X1:X3:X5:X2:N003 is floating.
WARNING: Node X1:X3:X5:X2:N005 is floating.
WARNING: Node X1:X3:X5:X2:N001 is floating.
WARNING: Node X1:X3:X5:X2:N002 is floating.
WARNING: Node X1:X3:X5:X3:N003 is floating.
WARNING: Node X1:X3:X5:X3:N005 is floating.
WARNING: Node X1:X3:X5:X3:N001 is floating.
WARNING: Node X1:X3:X5:X3:N002 is floating.
WARNING: Node X1:X3:X5:X4:N003 is floating.
WARNING: Node X1:X3:X5:X4:N005 is floating.
WARNING: Node X1:X3:X5:X4:N001 is floating.
WARNING: Node X1:X3:X5:X4:N002 is floating.
WARNING: Node X1:X4:X1:N003 is floating.
WARNING: Node X1:X4:X1:N005 is floating.
WARNING: Node X1:X4:X1:N001 is floating.
WARNING: Node X1:X4:X1:N002 is floating.
WARNING: Node X1:X4:X2:N003 is floating.
WARNING: Node X1:X4:X2:N005 is floating.
WARNING: Node X1:X4:X2:N001 is floating.
WARNING: Node X1:X4:X2:N002 is floating.
WARNING: Node X1:X4:X3:N003 is floating.
WARNING: Node X1:X4:X3:N005 is floating.
WARNING: Node X1:X4:X3:N001 is floating.
WARNING: Node X1:X4:X3:N002 is floating.
WARNING: Node X1:X4:X4:X1:N003 is floating.
WARNING: Node X1:X4:X4:X1:N005 is floating.
WARNING: Node X1:X4:X4:X1:N001 is floating.
WARNING: Node X1:X4:X4:X1:N002 is floating.
WARNING: Node X1:X4:X4:X2:N003 is floating.
WARNING: Node X1:X4:X4:X2:N005 is floating.
WARNING: Node X1:X4:X4:X2:N001 is floating.
WARNING: Node X1:X4:X4:X2:N002 is floating.
WARNING: Node X1:X4:X4:X3:N003 is floating.
WARNING: Node X1:X4:X4:X3:N005 is floating.
WARNING: Node X1:X4:X4:X3:N001 is floating.
WARNING: Node X1:X4:X4:X3:N002 is floating.
WARNING: Node X1:X4:X4:X4:N003 is floating.
WARNING: Node X1:X4:X4:X4:N005 is floating.
WARNING: Node X1:X4:X4:X4:N001 is floating.
WARNING: Node X1:X4:X4:X4:N002 is floating.
WARNING: Node X1:X4:X5:X1:N003 is floating.
WARNING: Node X1:X4:X5:X1:N005 is floating.
WARNING: Node X1:X4:X5:X1:N001 is floating.
WARNING: Node X1:X4:X5:X1:N002 is floating.
WARNING: Node X1:X4:X5:X2:N003 is floating.
WARNING: Node X1:X4:X5:X2:N005 is floating.
WARNING: Node X1:X4:X5:X2:N001 is floating.
WARNING: Node X1:X4:X5:X2:N002 is floating.
WARNING: Node X1:X4:X5:X3:N003 is floating.
WARNING: Node X1:X4:X5:X3:N005 is floating.
WARNING: Node X1:X4:X5:X3:N001 is floating.
WARNING: Node X1:X4:X5:X3:N002 is floating.
WARNING: Node X1:X4:X5:X4:N003 is floating.
WARNING: Node X1:X4:X5:X4:N005 is floating.
WARNING: Node X1:X4:X5:X4:N001 is floating.
WARNING: Node X1:X4:X5:X4:N002 is floating.

Direct Newton iteration failed to find .op point.  (Use ".option noopiter" to skip.)
Starting Gmin stepping
Gmin = 10
Gmin = 1.07374
Gmin = 0.115292
Gmin = 0.0123794
Gmin = 0.00132923
Gmin = 0.000142725
Gmin = 1.5325e-005
Gmin = 1.6455e-006
Gmin = 1.76685e-007
Gmin = 1.89714e-008
Gmin = 2.03704e-009
Gmin = 2.18725e-010
Gmin = 2.34854e-011
Gmin = 2.52173e-012
Gmin = 2.70769e-013
Gmin = 0
Gmin stepping succeeded in finding the operating point.


Date: Mon Nov 23 21:44:11 2020
Total elapsed time: 2.130 seconds.

tnom = 27
temp = 27
method = modified trap
totiter = 2539
traniter = 2086
tranpoints = 1044
accept = 1044
rejected = 0
matrix size = 282
fillins = 34
solver = Normal
Thread vector: 96.7/12.3[8] 51.5/6.5[8] 16.2/9.2[8] 1.7/11.2[1]  2592/500
Matrix Compiler1: 39.98 KB object code size  22.5/10.3/[4.2]
Matrix Compiler2: 36.17 KB object code size  13.2/12.1/[2.6]

